<?xml version="1.0" encoding="UTF-8"?>

<!-- generated on Wed Feb 23 20:59:45 2022 by Eclipse SUMO netconvert Version 1.8.0
<configuration xmlns:xsi="http://www.w3.org/2001/XMLSchema-instance" xsi:noNamespaceSchemaLocation="http://sumo.dlr.de/xsd/netconvertConfiguration.xsd">

    <input>
        <type-files value="/opt/homebrew/opt/sumo/share/sumo/data/typemap/osmNetconvert.typ.xml"/>
        <osm-files value="osm_bbox.osm.xml"/>
    </input>

    <output>
        <output-file value="osm.net.xml"/>
        <output.street-names value="true"/>
        <output.original-names value="true"/>
    </output>

    <projection>
        <proj.utm value="true"/>
    </projection>

    <processing>
        <geometry.remove value="true"/>
        <roundabouts.guess value="true"/>
    </processing>

    <tls_building>
        <tls.discard-simple value="true"/>
        <tls.join value="true"/>
        <tls.guess-signals value="true"/>
        <tls.default-type value="actuated"/>
    </tls_building>

    <ramp_guessing>
        <ramps.guess value="true"/>
    </ramp_guessing>

    <junctions>
        <junctions.join value="true"/>
        <junctions.corner-detail value="5"/>
    </junctions>

    <report>
        <verbose value="true"/>
        <aggregate-warnings value="5"/>
    </report>

</configuration>
-->

<net version="1.6" junctionCornerDetail="5" limitTurnSpeed="5.50" xmlns:xsi="http://www.w3.org/2001/XMLSchema-instance" xsi:noNamespaceSchemaLocation="http://sumo.dlr.de/xsd/net_file.xsd">

    <location netOffset="-618463.21,-4844496.95" convBoundary="0.00,0.00,5658.01,5573.96" origBoundary="-79.527513,43.743561,-79.458482,43.794215" projParameter="+proj=utm +zone=17 +ellps=WGS84 +datum=WGS84 +units=m +no_defs"/>

    <type id="highway.bridleway" priority="1" numLanes="1" speed="2.78" allow="pedestrian" oneway="1" width="2.00"/>
    <type id="highway.bus_guideway" priority="1" numLanes="1" speed="27.78" allow="bus" oneway="1"/>
    <type id="highway.cycleway" priority="1" numLanes="1" speed="8.33" allow="bicycle" oneway="0" width="1.00"/>
    <type id="highway.footway" priority="1" numLanes="1" speed="2.78" allow="pedestrian" oneway="1" width="2.00"/>
    <type id="highway.ford" priority="1" numLanes="1" speed="2.78" allow="army" oneway="0"/>
    <type id="highway.living_street" priority="2" numLanes="1" speed="2.78" disallow="tram rail_urban rail rail_electric rail_fast ship" oneway="0"/>
    <type id="highway.motorway" priority="14" numLanes="2" speed="39.44" allow="private emergency authority army vip passenger hov taxi bus coach delivery truck trailer motorcycle evehicle custom1 custom2" oneway="1"/>
    <type id="highway.motorway_link" priority="9" numLanes="1" speed="22.22" allow="private emergency authority army vip passenger hov taxi bus coach delivery truck trailer motorcycle evehicle custom1 custom2" oneway="1"/>
    <type id="highway.path" priority="1" numLanes="1" speed="2.78" allow="pedestrian bicycle" oneway="0" width="2.00"/>
    <type id="highway.pedestrian" priority="1" numLanes="1" speed="2.78" allow="pedestrian" oneway="1" width="2.00"/>
    <type id="highway.primary" priority="12" numLanes="2" speed="27.78" disallow="tram rail_urban rail rail_electric rail_fast ship" oneway="0"/>
    <type id="highway.primary_link" priority="7" numLanes="1" speed="22.22" disallow="tram rail_urban rail rail_electric rail_fast ship" oneway="0"/>
    <type id="highway.raceway" priority="15" numLanes="2" speed="83.33" allow="vip" oneway="0"/>
    <type id="highway.residential" priority="3" numLanes="1" speed="13.89" disallow="tram rail_urban rail rail_electric rail_fast ship" oneway="0"/>
    <type id="highway.secondary" priority="11" numLanes="1" speed="27.78" disallow="tram rail_urban rail rail_electric rail_fast ship" oneway="0"/>
    <type id="highway.secondary_link" priority="6" numLanes="1" speed="22.22" disallow="tram rail_urban rail rail_electric rail_fast ship" oneway="0"/>
    <type id="highway.service" priority="1" numLanes="1" speed="5.56" allow="pedestrian delivery bicycle" oneway="0"/>
    <type id="highway.stairs" priority="1" numLanes="1" speed="1.39" allow="pedestrian" oneway="1" width="2.00"/>
    <type id="highway.step" priority="1" numLanes="1" speed="1.39" allow="pedestrian" oneway="1" width="2.00"/>
    <type id="highway.steps" priority="1" numLanes="1" speed="1.39" allow="pedestrian" oneway="1" width="2.00"/>
    <type id="highway.tertiary" priority="10" numLanes="1" speed="22.22" disallow="tram rail_urban rail rail_electric rail_fast ship" oneway="0"/>
    <type id="highway.tertiary_link" priority="5" numLanes="1" speed="22.22" disallow="tram rail_urban rail rail_electric rail_fast ship" oneway="0"/>
    <type id="highway.track" priority="1" numLanes="1" speed="5.56" allow="pedestrian motorcycle moped bicycle" oneway="0"/>
    <type id="highway.trunk" priority="13" numLanes="2" speed="27.78" disallow="pedestrian bicycle tram rail_urban rail rail_electric rail_fast ship" oneway="0"/>
    <type id="highway.trunk_link" priority="8" numLanes="1" speed="22.22" disallow="pedestrian bicycle tram rail_urban rail rail_electric rail_fast ship" oneway="0"/>
    <type id="highway.unclassified" priority="4" numLanes="1" speed="13.89" disallow="tram rail_urban rail rail_electric rail_fast ship" oneway="0"/>
    <type id="highway.unsurfaced" priority="1" numLanes="1" speed="8.33" disallow="tram rail_urban rail rail_electric rail_fast ship" oneway="0"/>
    <type id="railway.highspeed" priority="21" numLanes="1" speed="69.44" allow="rail_fast" oneway="1"/>
    <type id="railway.light_rail" priority="19" numLanes="1" speed="27.78" allow="rail_urban" oneway="1"/>
    <type id="railway.preserved" priority="16" numLanes="1" speed="27.78" allow="rail" oneway="1"/>
    <type id="railway.rail" priority="20" numLanes="1" speed="44.44" allow="rail" oneway="1"/>
    <type id="railway.subway" priority="18" numLanes="1" speed="27.78" allow="rail_urban" oneway="1"/>
    <type id="railway.tram" priority="17" numLanes="1" speed="13.89" allow="tram" oneway="1"/>

    <edge id=":1110038800_0" function="internal">
        <lane id=":1110038800_0_0" index="0" allow="pedestrian delivery bicycle" speed="3.65" length="4.67" shape="2145.93,2558.83 2146.91,2557.77 2147.76,2557.50 2148.49,2558.02 2149.09,2559.34"/>
    </edge>
    <edge id=":1132520388_0" function="internal">
        <lane id=":1132520388_0_0" index="0" disallow="tram rail_urban rail rail_electric rail_fast ship" speed="3.65" length="4.67" shape="1413.18,3192.73 1411.75,3192.87 1410.93,3192.50 1410.74,3191.63 1411.17,3190.25"/>
    </edge>
    <edge id=":1245014861_0" function="internal">
        <lane id=":1245014861_0_0" index="0" disallow="tram rail_urban rail rail_electric rail_fast ship" speed="6.47" length="9.03" shape="2555.81,2577.79 2553.39,2577.25 2551.39,2577.62 2549.81,2578.91 2548.66,2581.10"/>
    </edge>
    <edge id=":1245014861_1" function="internal">
        <lane id=":1245014861_1_0" index="0" disallow="tram rail_urban rail rail_electric rail_fast ship" speed="8.17" length="14.17" shape="2555.81,2577.79 2552.38,2575.92 2550.30,2573.43 2549.55,2570.30 2550.16,2566.55"/>
    </edge>
    <edge id=":1245014861_2" function="internal">
        <lane id=":1245014861_2_0" index="0" disallow="tram rail_urban rail rail_electric rail_fast ship" speed="3.65" length="4.67" shape="2555.81,2577.79 2554.97,2576.61 2554.88,2575.72 2555.54,2575.12 2556.94,2574.79"/>
    </edge>
    <edge id=":1245014861_3" function="internal">
        <lane id=":1245014861_3_0" index="0" disallow="tram rail_urban rail rail_electric rail_fast ship" speed="6.70" length="9.22" shape="2553.21,2567.50 2552.83,2569.93 2553.32,2571.96 2554.69,2573.58 2556.94,2574.79"/>
    </edge>
    <edge id=":1245014861_4" function="internal">
        <lane id=":1245014861_4_0" index="0" disallow="tram rail_urban rail rail_electric rail_fast ship" speed="13.89" length="14.34" shape="2553.21,2567.50 2548.66,2581.10"/>
    </edge>
    <edge id=":1245014861_5" function="internal">
        <lane id=":1245014861_5_0" index="0" disallow="tram rail_urban rail rail_electric rail_fast ship" speed="3.65" length="2.34" shape="2553.21,2567.50 2552.09,2568.41 2551.21,2568.55"/>
    </edge>
    <edge id=":1245014861_9" function="internal">
        <lane id=":1245014861_9_0" index="0" disallow="tram rail_urban rail rail_electric rail_fast ship" speed="3.65" length="2.34" shape="2551.21,2568.55 2550.56,2567.93 2550.16,2566.55"/>
    </edge>
    <edge id=":1245014861_6" function="internal">
        <lane id=":1245014861_6_0" index="0" disallow="tram rail_urban rail rail_electric rail_fast ship" speed="13.89" length="14.22" shape="2545.64,2580.03 2550.16,2566.55"/>
    </edge>
    <edge id=":1245014861_7" function="internal">
        <lane id=":1245014861_7_0" index="0" disallow="tram rail_urban rail rail_electric rail_fast ship" speed="7.97" length="5.73" shape="2545.64,2580.03 2547.47,2576.56 2548.88,2575.42"/>
    </edge>
    <edge id=":1245014861_8" function="internal">
        <lane id=":1245014861_8_0" index="0" disallow="tram rail_urban rail rail_electric rail_fast ship" speed="3.65" length="2.34" shape="2545.64,2580.03 2546.80,2579.17 2547.69,2579.06"/>
    </edge>
    <edge id=":1245014861_10" function="internal">
        <lane id=":1245014861_10_0" index="0" disallow="tram rail_urban rail rail_electric rail_fast ship" speed="7.97" length="8.53" shape="2548.88,2575.42 2549.96,2574.53 2553.12,2573.94 2556.94,2574.79"/>
    </edge>
    <edge id=":1245014861_11" function="internal">
        <lane id=":1245014861_11_0" index="0" disallow="tram rail_urban rail rail_electric rail_fast ship" speed="3.65" length="2.34" shape="2547.69,2579.06 2548.31,2579.70 2548.66,2581.10"/>
    </edge>
    <edge id=":1245014866_0" function="internal">
        <lane id=":1245014866_0_0" index="0" disallow="tram rail_urban rail rail_electric rail_fast ship" speed="13.89" length="14.30" shape="2678.53,2620.85 2671.57,2633.33"/>
    </edge>
    <edge id=":1245014866_1" function="internal">
        <lane id=":1245014866_1_0" index="0" disallow="tram rail_urban rail rail_electric rail_fast ship" speed="7.95" length="5.82" shape="2678.53,2620.85 2676.11,2623.95 2674.46,2624.86"/>
    </edge>
    <edge id=":1245014866_2" function="internal">
        <lane id=":1245014866_2_0" index="0" disallow="tram rail_urban rail rail_electric rail_fast ship" speed="3.65" length="2.34" shape="2678.53,2620.85 2677.24,2621.49 2676.35,2621.44"/>
    </edge>
    <edge id=":1245014866_9" function="internal">
        <lane id=":1245014866_9_0" index="0" disallow="tram rail_urban rail rail_electric rail_fast ship" speed="7.95" length="8.48" shape="2674.46,2624.86 2673.30,2625.50 2670.08,2625.50 2666.47,2623.95"/>
    </edge>
    <edge id=":1245014866_10" function="internal">
        <lane id=":1245014866_10_0" index="0" disallow="tram rail_urban rail rail_electric rail_fast ship" speed="3.65" length="2.34" shape="2676.35,2621.44 2675.85,2620.69 2675.76,2619.26"/>
    </edge>
    <edge id=":1245014866_3" function="internal">
        <lane id=":1245014866_3_0" index="0" disallow="tram rail_urban rail rail_electric rail_fast ship" speed="6.45" length="9.03" shape="2668.13,2621.22 2670.41,2622.20 2672.45,2622.20 2674.23,2621.21 2675.76,2619.26"/>
    </edge>
    <edge id=":1245014866_4" function="internal">
        <lane id=":1245014866_4_0" index="0" disallow="tram rail_urban rail rail_electric rail_fast ship" speed="8.15" length="14.20" shape="2668.13,2621.22 2671.17,2623.69 2672.75,2626.54 2672.89,2629.75 2671.57,2633.33"/>
    </edge>
    <edge id=":1245014866_5" function="internal">
        <lane id=":1245014866_5_0" index="0" disallow="tram rail_urban rail rail_electric rail_fast ship" speed="3.65" length="4.67" shape="2668.13,2621.22 2668.74,2622.53 2668.67,2623.42 2667.91,2623.89 2666.47,2623.95"/>
    </edge>
    <edge id=":1245014866_6" function="internal">
        <lane id=":1245014866_6_0" index="0" disallow="tram rail_urban rail rail_electric rail_fast ship" speed="6.68" length="9.22" shape="2668.75,2631.80 2669.60,2629.49 2669.50,2627.41 2668.46,2625.57 2666.47,2623.95"/>
    </edge>
    <edge id=":1245014866_7" function="internal">
        <lane id=":1245014866_7_0" index="0" disallow="tram rail_urban rail rail_electric rail_fast ship" speed="13.89" length="14.37" shape="2668.75,2631.80 2675.76,2619.26"/>
    </edge>
    <edge id=":1245014866_8" function="internal">
        <lane id=":1245014866_8_0" index="0" disallow="tram rail_urban rail rail_electric rail_fast ship" speed="3.65" length="2.34" shape="2668.75,2631.80 2670.03,2631.13 2670.92,2631.16"/>
    </edge>
    <edge id=":1245014866_11" function="internal">
        <lane id=":1245014866_11_0" index="0" disallow="tram rail_urban rail rail_electric rail_fast ship" speed="3.65" length="2.34" shape="2670.92,2631.16 2671.44,2631.89 2671.57,2633.33"/>
    </edge>
    <edge id=":1245014871_0" function="internal">
        <lane id=":1245014871_0_0" index="0" allow="pedestrian delivery bicycle" speed="5.56" length="4.74" shape="2588.18,2780.02 2583.67,2778.57"/>
    </edge>
    <edge id=":1245014871_1" function="internal">
        <lane id=":1245014871_1_0" index="0" allow="pedestrian delivery bicycle" speed="3.65" length="2.34" shape="2588.18,2780.02 2587.33,2778.86 2587.23,2777.97"/>
    </edge>
    <edge id=":1245014871_4" function="internal">
        <lane id=":1245014871_4_0" index="0" allow="pedestrian delivery bicycle" speed="3.65" length="2.34" shape="2587.23,2777.97 2587.89,2777.36 2589.29,2777.02"/>
    </edge>
    <edge id=":1245014871_2" function="internal">
        <lane id=":1245014871_2_0" index="0" allow="pedestrian delivery bicycle" speed="5.56" length="4.99" shape="2584.54,2775.49 2589.29,2777.02"/>
    </edge>
    <edge id=":1245014871_3" function="internal">
        <lane id=":1245014871_3_0" index="0" allow="pedestrian delivery bicycle" speed="3.65" length="2.34" shape="2584.54,2775.49 2585.48,2776.59 2585.64,2777.46"/>
    </edge>
    <edge id=":1245014871_5" function="internal">
        <lane id=":1245014871_5_0" index="0" allow="pedestrian delivery bicycle" speed="3.65" length="2.34" shape="2585.64,2777.46 2585.04,2778.12 2583.67,2778.57"/>
    </edge>
    <edge id=":1390247799_0" function="internal">
        <lane id=":1390247799_0_0" index="0" allow="pedestrian delivery bicycle" speed="5.14" length="5.15" shape="3025.07,2666.91 3023.73,2666.71 3022.62,2667.01 3021.74,2667.82 3021.11,2669.12"/>
    </edge>
    <edge id=":1390247799_1" function="internal">
        <lane id=":1390247799_1_0" index="0" disallow="tram rail_urban rail rail_electric rail_fast ship" speed="13.89" length="9.48" shape="3025.07,2666.91 3015.99,2664.19"/>
    </edge>
    <edge id=":1390247799_2" function="internal">
        <lane id=":1390247799_2_0" index="0" disallow="tram rail_urban rail rail_electric rail_fast ship" speed="3.65" length="2.34" shape="3025.07,2666.91 3024.16,2665.80 3024.01,2664.91"/>
    </edge>
    <edge id=":1390247799_9" function="internal">
        <lane id=":1390247799_9_0" index="0" disallow="tram rail_urban rail rail_electric rail_fast ship" speed="3.65" length="2.34" shape="3024.01,2664.91 3024.63,2664.27 3026.02,2663.86"/>
    </edge>
    <edge id=":1390247799_3" function="internal">
        <lane id=":1390247799_3_0" index="0" disallow="tram rail_urban rail rail_electric rail_fast ship" speed="13.89" length="9.63" shape="3016.79,2661.09 3026.02,2663.86"/>
    </edge>
    <edge id=":1390247799_4" function="internal">
        <lane id=":1390247799_4_0" index="0" allow="pedestrian delivery bicycle" speed="6.89" length="5.29" shape="3016.79,2661.09 3019.44,2662.31 3021.04,2664.06"/>
    </edge>
    <edge id=":1390247799_5" function="internal">
        <lane id=":1390247799_5_0" index="0" disallow="tram rail_urban rail rail_electric rail_fast ship" speed="3.65" length="2.34" shape="3016.79,2661.09 3017.75,2662.16 3017.94,2663.04"/>
    </edge>
    <edge id=":1390247799_10" function="internal">
        <lane id=":1390247799_10_0" index="0" allow="pedestrian delivery bicycle" speed="6.89" length="5.17" shape="3021.04,2664.06 3021.60,2666.33 3021.11,2669.12"/>
    </edge>
    <edge id=":1390247799_11" function="internal">
        <lane id=":1390247799_11_0" index="0" disallow="tram rail_urban rail rail_electric rail_fast ship" speed="3.65" length="2.34" shape="3017.94,2663.04 3017.35,2663.71 3015.99,2664.19"/>
    </edge>
    <edge id=":1390247799_6" function="internal">
        <lane id=":1390247799_6_0" index="0" allow="pedestrian delivery bicycle" speed="5.03" length="5.09" shape="3018.07,2668.11 3018.31,2666.74 3018.05,2665.64 3017.27,2664.78 3015.99,2664.19"/>
    </edge>
    <edge id=":1390247799_7" function="internal">
        <lane id=":1390247799_7_0" index="0" allow="pedestrian delivery bicycle" speed="6.94" length="10.22" shape="3018.07,2668.11 3019.33,2665.56 3021.07,2664.01 3023.30,2663.44 3026.02,2663.86"/>
    </edge>
    <edge id=":1390247799_8" function="internal">
        <lane id=":1390247799_8_0" index="0" allow="pedestrian delivery bicycle" speed="3.65" length="2.55" shape="3018.07,2668.11 3019.21,2667.22 3020.09,2667.10 3020.24,2667.24"/>
    </edge>
    <edge id=":1390247799_12" function="internal">
        <lane id=":1390247799_12_0" index="0" allow="pedestrian delivery bicycle" speed="3.65" length="2.13" shape="3020.24,2667.24 3020.73,2667.73 3021.11,2669.12"/>
    </edge>
    <edge id=":1390247802_0" function="internal">
        <lane id=":1390247802_0_0" index="0" disallow="tram rail_urban rail rail_electric rail_fast ship" speed="3.65" length="4.67" shape="3076.96,2667.55 3078.40,2667.65 3079.14,2668.15 3079.19,2669.04 3078.55,2670.33"/>
    </edge>
    <edge id=":1578945925_0" function="internal">
        <lane id=":1578945925_0_0" index="0" disallow="tram rail_urban rail rail_electric rail_fast ship" speed="16.67" length="20.43" shape="2847.51,3026.97 2843.62,3047.03"/>
        <lane id=":1578945925_0_1" index="1" disallow="tram rail_urban rail rail_electric rail_fast ship" speed="16.67" length="20.43" shape="2844.36,3026.36 2840.48,3046.42"/>
    </edge>
    <edge id=":1578945925_2" function="internal">
        <lane id=":1578945925_2_0" index="0" disallow="tram rail_urban rail rail_electric rail_fast ship" speed="19.44" length="20.43" shape="2844.36,3026.36 2842.64,3032.80 2840.53,3037.72 2838.37,3041.65 2836.48,3045.09"/>
    </edge>
    <edge id=":1578945932_0" function="internal">
        <lane id=":1578945932_0_0" index="0" disallow="tram rail_urban rail rail_electric rail_fast ship" speed="16.67" length="28.16" shape="2771.76,3293.42 2777.33,3265.81"/>
        <lane id=":1578945932_0_1" index="1" disallow="tram rail_urban rail rail_electric rail_fast ship" speed="16.67" length="28.16" shape="2774.89,3294.05 2780.47,3266.45"/>
    </edge>
    <edge id=":1578945932_2" function="internal">
        <lane id=":1578945932_2_0" index="0" disallow="tram rail_urban rail rail_electric rail_fast ship" speed="19.44" length="28.15" shape="2774.89,3294.05 2776.93,3286.43 2779.60,3278.86 2782.24,3272.25 2784.15,3267.50"/>
    </edge>
    <edge id=":1700087085_0" function="internal">
        <lane id=":1700087085_0_0" index="0" disallow="tram rail_urban rail rail_electric rail_fast ship" speed="13.89" length="5.07" shape="2091.65,3248.38 2096.48,3249.94"/>
    </edge>
    <edge id=":1700087088_0" function="internal">
        <lane id=":1700087088_0_0" index="0" disallow="tram rail_urban rail rail_electric rail_fast ship" speed="13.89" length="4.97" shape="2066.65,3338.91 2061.93,3337.33"/>
    </edge>
    <edge id=":1756709924_0" function="internal">
        <lane id=":1756709924_0_0" index="0" allow="pedestrian delivery bicycle" speed="3.65" length="4.67" shape="2995.83,2744.93 2994.69,2745.82 2993.80,2745.94 2993.17,2745.31 2992.79,2743.92"/>
    </edge>
    <edge id=":1811961673_0" function="internal">
        <lane id=":1811961673_0_0" index="0" allow="pedestrian delivery bicycle" speed="3.65" length="4.67" shape="2675.10,2529.57 2676.39,2528.91 2677.28,2528.95 2677.78,2529.69 2677.90,2531.12"/>
    </edge>
    <edge id=":1811961680_0" function="internal">
        <lane id=":1811961680_0_0" index="0" allow="pedestrian delivery bicycle" speed="5.56" length="5.78" shape="2639.27,2607.58 2637.74,2607.13 2636.40,2607.22 2635.25,2607.86 2634.30,2609.05"/>
    </edge>
    <edge id=":1811961680_1" function="internal">
        <lane id=":1811961680_1_0" index="0" disallow="tram rail_urban rail rail_electric rail_fast ship" speed="13.89" length="9.93" shape="2639.27,2607.58 2630.35,2603.21"/>
    </edge>
    <edge id=":1811961680_2" function="internal">
        <lane id=":1811961680_2_0" index="0" allow="pedestrian delivery bicycle" speed="6.79" length="2.72" shape="2639.27,2607.58 2636.97,2606.13"/>
    </edge>
    <edge id=":1811961680_3" function="internal">
        <lane id=":1811961680_3_0" index="0" disallow="tram rail_urban rail rail_electric rail_fast ship" speed="3.65" length="2.34" shape="2639.27,2607.58 2638.50,2606.36 2638.46,2605.47"/>
    </edge>
    <edge id=":1811961680_16" function="internal">
        <lane id=":1811961680_16_0" index="0" allow="pedestrian delivery bicycle" speed="6.79" length="7.89" shape="2636.97,2606.13 2636.78,2606.01 2635.47,2604.04 2635.34,2601.69 2636.40,2598.94"/>
    </edge>
    <edge id=":1811961680_17" function="internal">
        <lane id=":1811961680_17_0" index="0" disallow="tram rail_urban rail rail_electric rail_fast ship" speed="3.65" length="2.34" shape="2638.46,2605.47 2639.15,2604.90 2640.57,2604.66"/>
    </edge>
    <edge id=":1811961680_4" function="internal">
        <lane id=":1811961680_4_0" index="0" allow="pedestrian delivery bicycle" speed="4.95" length="5.11" shape="2639.19,2600.50 2638.68,2601.82 2638.74,2602.96 2639.37,2603.90 2640.57,2604.66"/>
    </edge>
    <edge id=":1811961680_5" function="internal">
        <lane id=":1811961680_5_0" index="0" allow="pedestrian delivery bicycle" speed="5.56" length="9.85" shape="2639.19,2600.50 2634.30,2609.05"/>
    </edge>
    <edge id=":1811961680_6" function="internal">
        <lane id=":1811961680_6_0" index="0" allow="pedestrian delivery bicycle" speed="7.01" length="10.51" shape="2639.19,2600.50 2637.44,2602.82 2635.38,2604.04 2633.01,2604.18 2630.35,2603.21"/>
    </edge>
    <edge id=":1811961680_7" function="internal">
        <lane id=":1811961680_7_0" index="0" allow="pedestrian delivery bicycle" speed="3.65" length="4.67" shape="2639.19,2600.50 2637.91,2601.15 2637.01,2601.11 2636.51,2600.37 2636.40,2598.94"/>
    </edge>
    <edge id=":1811961680_8" function="internal">
        <lane id=":1811961680_8_0" index="0" allow="pedestrian delivery bicycle" speed="5.24" length="5.41" shape="2631.86,2600.39 2633.22,2600.88 2634.43,2600.80 2635.49,2600.15 2636.40,2598.94"/>
    </edge>
    <edge id=":1811961680_9" function="internal">
        <lane id=":1811961680_9_0" index="0" disallow="tram rail_urban rail rail_electric rail_fast ship" speed="13.89" length="9.70" shape="2631.86,2600.39 2640.57,2604.66"/>
    </edge>
    <edge id=":1811961680_10" function="internal">
        <lane id=":1811961680_10_0" index="0" allow="pedestrian delivery bicycle" speed="6.83" length="2.34" shape="2631.86,2600.39 2633.74,2601.78"/>
    </edge>
    <edge id=":1811961680_11" function="internal">
        <lane id=":1811961680_11_0" index="0" disallow="tram rail_urban rail rail_electric rail_fast ship" speed="3.65" length="2.34" shape="2631.86,2600.39 2632.54,2601.66 2632.52,2602.56"/>
    </edge>
    <edge id=":1811961680_18" function="internal">
        <lane id=":1811961680_18_0" index="0" allow="pedestrian delivery bicycle" speed="6.83" length="8.01" shape="2633.74,2601.78 2634.16,2602.08 2635.33,2604.09 2635.37,2606.41 2634.30,2609.05"/>
    </edge>
    <edge id=":1811961680_19" function="internal">
        <lane id=":1811961680_19_0" index="0" disallow="tram rail_urban rail rail_electric rail_fast ship" speed="3.65" length="2.34" shape="2632.52,2602.56 2631.78,2603.07 2630.35,2603.21"/>
    </edge>
    <edge id=":1811961680_12" function="internal">
        <lane id=":1811961680_12_0" index="0" allow="pedestrian delivery bicycle" speed="5.00" length="5.05" shape="2631.54,2607.43 2632.06,2606.15 2632.04,2605.01 2631.47,2604.04 2630.35,2603.21"/>
    </edge>
    <edge id=":1811961680_13" function="internal">
        <lane id=":1811961680_13_0" index="0" allow="pedestrian delivery bicycle" speed="5.56" length="9.79" shape="2631.54,2607.43 2636.40,2598.94"/>
    </edge>
    <edge id=":1811961680_14" function="internal">
        <lane id=":1811961680_14_0" index="0" allow="pedestrian delivery bicycle" speed="7.26" length="10.54" shape="2631.54,2607.43 2633.29,2605.24 2635.38,2604.04 2637.81,2603.85 2640.57,2604.66"/>
    </edge>
    <edge id=":1811961680_15" function="internal">
        <lane id=":1811961680_15_0" index="0" allow="pedestrian delivery bicycle" speed="3.65" length="4.67" shape="2631.54,2607.43 2632.83,2606.80 2633.73,2606.86 2634.21,2607.61 2634.30,2609.05"/>
    </edge>
    <edge id=":1811961897_0" function="internal">
        <lane id=":1811961897_0_0" index="0" allow="bicycle" speed="2.69" length="3.07" width="1.00" shape="3083.84,2616.21 3084.70,2616.60 3085.04,2617.08 3084.87,2617.64 3084.17,2618.28"/>
    </edge>
    <edge id=":1812112200_0" function="internal">
        <lane id=":1812112200_0_0" index="0" allow="pedestrian delivery bicycle" speed="4.90" length="5.18" shape="2246.22,2531.39 2244.86,2531.05 2243.77,2531.28 2242.93,2532.09 2242.37,2533.48"/>
    </edge>
    <edge id=":1812112200_1" function="internal">
        <lane id=":1812112200_1_0" index="0" disallow="tram rail_urban rail rail_electric rail_fast ship" speed="13.89" length="9.57" shape="2246.22,2531.39 2243.59,2530.35 2241.73,2529.80 2239.82,2529.38 2237.04,2528.78"/>
    </edge>
    <edge id=":1812112200_2" function="internal">
        <lane id=":1812112200_2_0" index="0" disallow="tram rail_urban rail rail_electric rail_fast ship" speed="3.68" length="2.34" shape="2246.22,2531.39 2245.34,2530.25 2245.21,2529.37"/>
    </edge>
    <edge id=":1812112200_9" function="internal">
        <lane id=":1812112200_9_0" index="0" disallow="tram rail_urban rail rail_electric rail_fast ship" speed="3.68" length="2.34" shape="2245.21,2529.37 2245.85,2528.74 2247.24,2528.36"/>
    </edge>
    <edge id=":1812112200_3" function="internal">
        <lane id=":1812112200_3_0" index="0" disallow="tram rail_urban rail rail_electric rail_fast ship" speed="13.89" length="9.85" shape="2237.77,2525.66 2240.62,2526.34 2242.55,2526.84 2244.47,2527.43 2247.24,2528.36"/>
    </edge>
    <edge id=":1812112200_4" function="internal">
        <lane id=":1812112200_4_0" index="0" allow="pedestrian delivery bicycle" speed="6.88" length="4.94" shape="2237.77,2525.66 2240.40,2526.70 2241.89,2528.19"/>
    </edge>
    <edge id=":1812112200_5" function="internal">
        <lane id=":1812112200_5_0" index="0" disallow="tram rail_urban rail rail_electric rail_fast ship" speed="3.65" length="2.34" shape="2237.77,2525.66 2238.76,2526.71 2238.96,2527.58"/>
    </edge>
    <edge id=":1812112200_10" function="internal">
        <lane id=":1812112200_10_0" index="0" allow="pedestrian delivery bicycle" speed="6.88" length="5.46" shape="2241.89,2528.19 2242.05,2528.35 2242.70,2530.61 2242.37,2533.48"/>
    </edge>
    <edge id=":1812112200_11" function="internal">
        <lane id=":1812112200_11_0" index="0" disallow="tram rail_urban rail rail_electric rail_fast ship" speed="3.65" length="2.34" shape="2238.96,2527.58 2238.39,2528.27 2237.04,2528.78"/>
    </edge>
    <edge id=":1812112200_6" function="internal">
        <lane id=":1812112200_6_0" index="0" allow="pedestrian delivery bicycle" speed="5.06" length="5.15" shape="2239.27,2532.68 2239.44,2531.24 2239.13,2530.11 2238.33,2529.29 2237.04,2528.78"/>
    </edge>
    <edge id=":1812112200_7" function="internal">
        <lane id=":1812112200_7_0" index="0" allow="pedestrian delivery bicycle" speed="6.81" length="10.51" shape="2239.27,2532.68 2240.40,2530.00 2242.10,2528.38 2244.38,2527.84 2247.24,2528.36"/>
    </edge>
    <edge id=":1812112200_8" function="internal">
        <lane id=":1812112200_8_0" index="0" allow="pedestrian delivery bicycle" speed="3.65" length="4.67" shape="2239.27,2532.68 2240.35,2531.72 2241.22,2531.53 2241.89,2532.12 2242.37,2533.48"/>
    </edge>
    <edge id=":1812112201_0" function="internal">
        <lane id=":1812112201_0_0" index="0" disallow="tram rail_urban rail rail_electric rail_fast ship" speed="13.89" length="5.40" shape="2726.31,2538.40 2723.51,2543.02"/>
    </edge>
    <edge id=":1812112201_1" function="internal">
        <lane id=":1812112201_1_0" index="0" disallow="tram rail_urban rail rail_electric rail_fast ship" speed="3.65" length="2.34" shape="2726.31,2538.40 2724.99,2538.98 2724.10,2538.89"/>
    </edge>
    <edge id=":1812112201_4" function="internal">
        <lane id=":1812112201_4_0" index="0" disallow="tram rail_urban rail rail_electric rail_fast ship" speed="3.65" length="2.34" shape="2724.10,2538.89 2723.64,2538.13 2723.61,2536.68"/>
    </edge>
    <edge id=":1812112201_2" function="internal">
        <lane id=":1812112201_2_0" index="0" disallow="tram rail_urban rail rail_electric rail_fast ship" speed="13.89" length="5.53" shape="2720.74,2541.41 2723.61,2536.68"/>
    </edge>
    <edge id=":1812112201_3" function="internal">
        <lane id=":1812112201_3_0" index="0" disallow="tram rail_urban rail rail_electric rail_fast ship" speed="3.65" length="2.34" shape="2720.74,2541.41 2722.03,2540.78 2722.93,2540.83"/>
    </edge>
    <edge id=":1812112201_5" function="internal">
        <lane id=":1812112201_5_0" index="0" disallow="tram rail_urban rail rail_electric rail_fast ship" speed="3.65" length="2.34" shape="2722.93,2540.83 2723.42,2541.58 2723.51,2543.02"/>
    </edge>
    <edge id=":1812112203_0" function="internal">