<?xml version="1.0" encoding="UTF-8"?>

<!-- generated on Tue Oct  5 20:32:47 2021 by Eclipse SUMO netedit Version 1.8.0
<configuration xmlns:xsi="http://www.w3.org/2001/XMLSchema-instance" xsi:noNamespaceSchemaLocation="http://sumo.dlr.de/xsd/netconvertConfiguration.xsd">

    <input>
        <sumo-net-file value="/Users/alinematich/yorkSimulation/osm.net.xml"/>
    </input>

    <output>
        <output-file value="/Users/alinematich/yorkSimulation/osm.net.xml"/>
        <output.street-names value="true"/>
    </output>

    <processing>
        <geometry.min-radius.fix.railways value="false"/>
        <geometry.max-grade.fix value="false"/>
        <offset.disable-normalization value="true"/>
        <lefthand value="false"/>
    </processing>

    <junctions>
        <no-turnarounds value="true"/>
        <junctions.corner-detail value="5"/>
        <junctions.limit-turn-speed value="5.5"/>
        <rectangular-lane-cut value="false"/>
    </junctions>

    <pedestrian>
        <walkingareas value="false"/>
    </pedestrian>

    <report>
        <aggregate-warnings value="5"/>
    </report>

</configuration>
-->

<net version="1.6" junctionCornerDetail="5" limitTurnSpeed="5.50" xmlns:xsi="http://www.w3.org/2001/XMLSchema-instance" xsi:noNamespaceSchemaLocation="http://sumo.dlr.de/xsd/net_file.xsd">

    <location netOffset="-615159.77,-4842939.34" convBoundary="3681.37,2955.64,6311.61,5951.16" origBoundary="-79.600528,43.729296,-79.458482,43.794215" projParameter="+proj=utm +zone=17 +ellps=WGS84 +datum=WGS84 +units=m +no_defs"/>

    <type id="highway.bridleway" priority="1" numLanes="1" speed="2.78" allow="pedestrian" oneway="1" width="2.00"/>
    <type id="highway.bus_guideway" priority="1" numLanes="1" speed="27.78" allow="bus" oneway="1"/>
    <type id="highway.cycleway" priority="1" numLanes="1" speed="8.33" allow="bicycle" oneway="1" width="1.00"/>
    <type id="highway.footway" priority="1" numLanes="1" speed="2.78" allow="pedestrian" oneway="1" width="2.00"/>
    <type id="highway.ford" priority="1" numLanes="1" speed="2.78" allow="army" oneway="1"/>
    <type id="highway.living_street" priority="2" numLanes="1" speed="2.78" disallow="tram rail_urban rail rail_electric rail_fast ship" oneway="1"/>
    <type id="highway.motorway" priority="14" numLanes="2" speed="39.44" allow="private emergency authority army vip passenger hov taxi bus coach delivery truck trailer motorcycle evehicle custom1 custom2" oneway="1"/>
    <type id="highway.motorway_link" priority="9" numLanes="1" speed="22.22" allow="private emergency authority army vip passenger hov taxi bus coach delivery truck trailer motorcycle evehicle custom1 custom2" oneway="1"/>
    <type id="highway.path" priority="1" numLanes="1" speed="2.78" allow="pedestrian bicycle" oneway="1" width="2.00"/>
    <type id="highway.pedestrian" priority="1" numLanes="1" speed="2.78" allow="pedestrian" oneway="1" width="2.00"/>
    <type id="highway.primary" priority="12" numLanes="2" speed="27.78" disallow="tram rail_urban rail rail_electric rail_fast ship" oneway="1"/>
    <type id="highway.primary_link" priority="7" numLanes="1" speed="22.22" disallow="tram rail_urban rail rail_electric rail_fast ship" oneway="1"/>
    <type id="highway.raceway" priority="15" numLanes="2" speed="83.33" allow="vip" oneway="1"/>
    <type id="highway.residential" priority="3" numLanes="1" speed="13.89" disallow="tram rail_urban rail rail_electric rail_fast ship" oneway="1"/>
    <type id="highway.secondary" priority="11" numLanes="1" speed="27.78" disallow="tram rail_urban rail rail_electric rail_fast ship" oneway="1"/>
    <type id="highway.secondary_link" priority="6" numLanes="1" speed="22.22" disallow="tram rail_urban rail rail_electric rail_fast ship" oneway="1"/>
    <type id="highway.service" priority="1" numLanes="1" speed="5.56" allow="pedestrian delivery bicycle" oneway="1"/>
    <type id="highway.stairs" priority="1" numLanes="1" speed="1.39" allow="pedestrian" oneway="1" width="2.00"/>
    <type id="highway.step" priority="1" numLanes="1" speed="1.39" allow="pedestrian" oneway="1" width="2.00"/>
    <type id="highway.steps" priority="1" numLanes="1" speed="1.39" allow="pedestrian" oneway="1" width="2.00"/>
    <type id="highway.tertiary" priority="10" numLanes="1" speed="22.22" disallow="tram rail_urban rail rail_electric rail_fast ship" oneway="1"/>
    <type id="highway.tertiary_link" priority="5" numLanes="1" speed="22.22" disallow="tram rail_urban rail rail_electric rail_fast ship" oneway="1"/>
    <type id="highway.track" priority="1" numLanes="1" speed="5.56" allow="pedestrian motorcycle moped bicycle" oneway="1"/>
    <type id="highway.trunk" priority="13" numLanes="2" speed="27.78" disallow="pedestrian bicycle tram rail_urban rail rail_electric rail_fast ship" oneway="1"/>
    <type id="highway.trunk_link" priority="8" numLanes="1" speed="22.22" disallow="pedestrian bicycle tram rail_urban rail rail_electric rail_fast ship" oneway="1"/>
    <type id="highway.unclassified" priority="4" numLanes="1" speed="13.89" disallow="tram rail_urban rail rail_electric rail_fast ship" oneway="1"/>
    <type id="highway.unsurfaced" priority="1" numLanes="1" speed="8.33" disallow="tram rail_urban rail rail_electric rail_fast ship" oneway="1"/>
    <type id="railway.highspeed" priority="21" numLanes="1" speed="69.44" allow="rail_fast" oneway="1"/>
    <type id="railway.light_rail" priority="19" numLanes="1" speed="27.78" allow="rail_urban" oneway="1"/>
    <type id="railway.preserved" priority="16" numLanes="1" speed="27.78" allow="rail" oneway="1"/>
    <type id="railway.rail" priority="20" numLanes="1" speed="44.44" allow="rail" oneway="1"/>
    <type id="railway.subway" priority="18" numLanes="1" speed="27.78" allow="rail_urban" oneway="1"/>
    <type id="railway.tram" priority="17" numLanes="1" speed="13.89" allow="tram" oneway="1"/>

    <edge id=":1132520388_0" function="internal">
        <lane id=":1132520388_0_0" index="0" disallow="tram rail_urban rail rail_electric rail_fast ship" speed="8.33" length="10.37" shape="4720.21,4747.45 4718.11,4749.74 4716.90,4751.84 4715.46,4753.65 4712.67,4755.07"/>
        <lane id=":1132520388_0_1" index="1" disallow="tram rail_urban rail rail_electric rail_fast ship" speed="8.33" length="10.37" shape="4720.21,4747.45 4717.94,4749.24 4716.28,4750.33 4714.45,4751.12 4711.70,4752.02"/>
    </edge>
    <edge id=":1132520388_2" function="internal">
        <lane id=":1132520388_2_0" index="0" disallow="tram rail_urban rail rail_electric rail_fast ship" speed="8.33" length="8.55" shape="4710.74,4748.97 4713.15,4748.18 4714.75,4747.49 4716.21,4746.53 4718.19,4744.96"/>
    </edge>
    <edge id=":1245014861_0" function="internal">
        <lane id=":1245014861_0_0" index="0" disallow="tram rail_urban rail rail_electric rail_fast ship" speed="6.47" length="9.03" shape="5859.26,4135.41 5856.84,4134.87 5854.84,4135.24 5853.26,4136.53 5852.10,4138.73"/>
    </edge>
    <edge id=":1245014861_1" function="internal">
        <lane id=":1245014861_1_0" index="0" disallow="tram rail_urban rail rail_electric rail_fast ship" speed="8.16" length="14.17" shape="5859.26,4135.41 5855.83,4133.54 5853.74,4131.05 5853.00,4127.93 5853.60,4124.17"/>
    </edge>
    <edge id=":1245014861_2" function="internal">
        <lane id=":1245014861_2_0" index="0" disallow="tram rail_urban rail rail_electric rail_fast ship" speed="3.65" length="4.67" shape="5859.26,4135.41 5858.42,4134.23 5858.33,4133.34 5858.98,4132.74 5860.39,4132.41"/>
    </edge>
    <edge id=":1245014861_3" function="internal">
        <lane id=":1245014861_3_0" index="0" disallow="tram rail_urban rail rail_electric rail_fast ship" speed="6.70" length="9.22" shape="5856.66,4125.13 5856.27,4127.55 5856.76,4129.58 5858.14,4131.20 5860.39,4132.41"/>
    </edge>
    <edge id=":1245014861_4" function="internal">
        <lane id=":1245014861_4_0" index="0" disallow="tram rail_urban rail rail_electric rail_fast ship" speed="13.89" length="14.34" shape="5856.66,4125.13 5852.10,4138.73"/>
    </edge>
    <edge id=":1245014861_5" function="internal">
        <lane id=":1245014861_5_0" index="0" disallow="tram rail_urban rail rail_electric rail_fast ship" speed="3.65" length="2.34" shape="5856.66,4125.13 5855.53,4126.03 5854.65,4126.17"/>
    </edge>
    <edge id=":1245014861_9" function="internal">
        <lane id=":1245014861_9_0" index="0" disallow="tram rail_urban rail rail_electric rail_fast ship" speed="3.65" length="2.34" shape="5854.65,4126.17 5854.01,4125.55 5853.60,4124.17"/>
    </edge>
    <edge id=":1245014861_6" function="internal">
        <lane id=":1245014861_6_0" index="0" disallow="tram rail_urban rail rail_electric rail_fast ship" speed="13.89" length="14.22" shape="5849.09,4137.65 5853.60,4124.17"/>
    </edge>
    <edge id=":1245014861_7" function="internal">
        <lane id=":1245014861_7_0" index="0" disallow="tram rail_urban rail rail_electric rail_fast ship" speed="7.97" length="5.73" shape="5849.09,4137.65 5850.91,4134.18 5852.32,4133.04"/>
    </edge>
    <edge id=":1245014861_8" function="internal">
        <lane id=":1245014861_8_0" index="0" disallow="tram rail_urban rail rail_electric rail_fast ship" speed="3.65" length="2.34" shape="5849.09,4137.65 5850.25,4136.79 5851.13,4136.68"/>
    </edge>
    <edge id=":1245014861_10" function="internal">
        <lane id=":1245014861_10_0" index="0" disallow="tram rail_urban rail rail_electric rail_fast ship" speed="7.97" length="8.53" shape="5852.32,4133.04 5853.40,4132.16 5856.56,4131.56 5860.39,4132.41"/>
    </edge>
    <edge id=":1245014861_11" function="internal">
        <lane id=":1245014861_11_0" index="0" disallow="tram rail_urban rail rail_electric rail_fast ship" speed="3.65" length="2.34" shape="5851.13,4136.68 5851.75,4137.33 5852.10,4138.73"/>
    </edge>
    <edge id=":1245014866_0" function="internal">
        <lane id=":1245014866_0_0" index="0" disallow="tram rail_urban rail rail_electric rail_fast ship" speed="13.89" length="14.30" shape="5981.98,4178.46 5975.01,4190.95"/>
    </edge>
    <edge id=":1245014866_1" function="internal">
        <lane id=":1245014866_1_0" index="0" disallow="tram rail_urban rail rail_electric rail_fast ship" speed="7.95" length="5.82" shape="5981.98,4178.46 5979.56,4181.56 5977.91,4182.47"/>
    </edge>
    <edge id=":1245014866_2" function="internal">
        <lane id=":1245014866_2_0" index="0" disallow="tram rail_urban rail rail_electric rail_fast ship" speed="3.65" length="2.34" shape="5981.98,4178.46 5980.69,4179.11 5979.79,4179.06"/>
    </edge>
    <edge id=":1245014866_9" function="internal">
        <lane id=":1245014866_9_0" index="0" disallow="tram rail_urban rail rail_electric rail_fast ship" speed="7.95" length="8.47" shape="5977.91,4182.47 5976.74,4183.11 5973.53,4183.12 5969.91,4181.58"/>
    </edge>
    <edge id=":1245014866_10" function="internal">
        <lane id=":1245014866_10_0" index="0" disallow="tram rail_urban rail rail_electric rail_fast ship" speed="3.65" length="2.34" shape="5979.79,4179.06 5979.30,4178.31 5979.20,4176.87"/>
    </edge>
    <edge id=":1245014866_3" function="internal">
        <lane id=":1245014866_3_0" index="0" disallow="tram rail_urban rail rail_electric rail_fast ship" speed="6.45" length="9.03" shape="5971.57,4178.84 5973.86,4179.82 5975.89,4179.81 5977.67,4178.83 5979.20,4176.87"/>
    </edge>
    <edge id=":1245014866_4" function="internal">
        <lane id=":1245014866_4_0" index="0" disallow="tram rail_urban rail rail_electric rail_fast ship" speed="8.15" length="14.20" shape="5971.57,4178.84 5974.61,4181.31 5976.20,4184.15 5976.33,4187.37 5975.01,4190.95"/>
    </edge>
    <edge id=":1245014866_5" function="internal">
        <lane id=":1245014866_5_0" index="0" disallow="tram rail_urban rail rail_electric rail_fast ship" speed="3.65" length="4.67" shape="5971.57,4178.84 5972.19,4180.15 5972.11,4181.04 5971.35,4181.51 5969.91,4181.58"/>
    </edge>
    <edge id=":1245014866_6" function="internal">
        <lane id=":1245014866_6_0" index="0" disallow="tram rail_urban rail rail_electric rail_fast ship" speed="6.68" length="9.22" shape="5972.20,4189.42 5973.05,4187.11 5972.95,4185.03 5971.90,4183.19 5969.91,4181.58"/>
    </edge>
    <edge id=":1245014866_7" function="internal">
        <lane id=":1245014866_7_0" index="0" disallow="tram rail_urban rail rail_electric rail_fast ship" speed="13.89" length="14.37" shape="5972.20,4189.42 5979.20,4176.87"/>
    </edge>
    <edge id=":1245014866_8" function="internal">
        <lane id=":1245014866_8_0" index="0" disallow="tram rail_urban rail rail_electric rail_fast ship" speed="3.65" length="2.34" shape="5972.20,4189.42 5973.47,4188.75 5974.37,4188.78"/>
    </edge>
    <edge id=":1245014866_11" function="internal">
        <lane id=":1245014866_11_0" index="0" disallow="tram rail_urban rail rail_electric rail_fast ship" speed="3.65" length="2.34" shape="5974.37,4188.78 5974.88,4189.51 5975.01,4190.95"/>
    </edge>
    <edge id=":1287736695_0" function="internal">
        <lane id=":1287736695_0_0" index="0" disallow="tram rail_urban rail rail_electric rail_fast ship" speed="22.22" length="9.41" shape="5734.93,4979.50 5725.95,4976.68"/>
    </edge>
    <edge id=":1287736695_1" function="internal">
        <lane id=":1287736695_1_0" index="0" disallow="tram rail_urban rail rail_electric rail_fast ship" speed="5.98" length="8.04" shape="5734.93,4979.50 5732.32,4978.42 5730.66,4977.18 5729.95,4975.78 5730.19,4974.22"/>
    </edge>
    <edge id=":1287736695_2" function="internal">
        <lane id=":1287736695_2_0" index="0" disallow="tram rail_urban rail rail_electric rail_fast ship" speed="6.40" length="1.22" shape="5733.13,4975.50 5732.37,4976.46"/>
    </edge>
    <edge id=":1287736695_3" function="internal">
        <lane id=":1287736695_3_0" index="0" disallow="tram rail_urban rail rail_electric rail_fast ship" speed="3.65" length="1.31" shape="5733.13,4975.50 5732.03,4976.21"/>
    </edge>
    <edge id=":1287736695_4" function="internal">
        <lane id=":1287736695_4_0" index="0" disallow="tram rail_urban rail rail_electric rail_fast ship" speed="6.40" length="6.71" shape="5732.37,4976.46 5732.19,4976.69 5730.68,4977.28 5728.60,4977.28 5725.95,4976.68"/>
    </edge>
    <edge id=":1287736695_5" function="internal">
        <lane id=":1287736695_5_0" index="0" disallow="tram rail_urban rail rail_electric rail_fast ship" speed="3.65" length="3.37" shape="5732.03,4976.21 5731.91,4976.28 5731.02,4976.33 5730.45,4975.64 5730.19,4974.22"/>
    </edge>
    <edge id=":1353171756_0" function="internal">
        <lane id=":1353171756_0_0" index="0" disallow="tram rail_urban rail rail_electric rail_fast ship" speed="6.42" length="8.87" shape="5770.13,5275.82 5767.81,5275.35 5765.88,5275.79 5764.36,5277.13 5763.24,5279.37"/>
    </edge>
    <edge id=":1353171756_1" function="internal">
        <lane id=":1353171756_1_0" index="0" disallow="tram rail_urban rail rail_electric rail_fast ship" speed="13.89" length="14.08" shape="5770.13,5275.82 5756.76,5271.40"/>
    </edge>
    <edge id=":1353171756_2" function="internal">
        <lane id=":1353171756_2_0" index="0" disallow="tram rail_urban rail rail_electric rail_fast ship" speed="3.65" length="2.34" shape="5770.13,5275.82 5769.19,5274.72 5769.02,5273.84"/>
    </edge>
    <edge id=":1353171756_9" function="internal">
        <lane id=":1353171756_9_0" index="0" disallow="tram rail_urban rail rail_electric rail_fast ship" speed="3.65" length="2.34" shape="5769.02,5273.84 5769.62,5273.18 5770.99,5272.73"/>
    </edge>
    <edge id=":1353171756_3" function="internal">
        <lane id=":1353171756_3_0" index="0" disallow="tram rail_urban rail rail_electric rail_fast ship" speed="13.89" length="13.84" shape="5757.85,5268.39 5770.99,5272.73"/>
    </edge>
    <edge id=":1353171756_4" function="internal">
        <lane id=":1353171756_4_0" index="0" disallow="tram rail_urban rail rail_electric rail_fast ship" speed="7.93" length="5.80" shape="5757.85,5268.39 5761.26,5270.12 5762.54,5271.63"/>
    </edge>
    <edge id=":1353171756_5" function="internal">
        <lane id=":1353171756_5_0" index="0" disallow="tram rail_urban rail rail_electric rail_fast ship" speed="3.65" length="2.34" shape="5757.85,5268.39 5758.71,5269.55 5758.81,5270.44"/>
    </edge>
    <edge id=":1353171756_10" function="internal">
        <lane id=":1353171756_10_0" index="0" disallow="tram rail_urban rail rail_electric rail_fast ship" speed="7.93" length="8.16" shape="5762.54,5271.63 5763.30,5272.53 5763.96,5275.61 5763.24,5279.37"/>
    </edge>
    <edge id=":1353171756_11" function="internal">
        <lane id=":1353171756_11_0" index="0" disallow="tram rail_urban rail rail_electric rail_fast ship" speed="3.65" length="2.34" shape="5758.81,5270.44 5758.16,5271.06 5756.76,5271.40"/>
    </edge>
    <edge id=":1353171756_6" function="internal">
        <lane id=":1353171756_6_0" index="0" disallow="tram rail_urban rail rail_electric rail_fast ship" speed="6.44" length="8.86" shape="5760.20,5278.36 5760.65,5275.98 5760.23,5274.03 5758.93,5272.50 5756.76,5271.40"/>
    </edge>
    <edge id=":1353171756_7" function="internal">
        <lane id=":1353171756_7_0" index="0" disallow="tram rail_urban rail rail_electric rail_fast ship" speed="7.88" length="13.94" shape="5760.20,5278.36 5761.97,5274.82 5764.36,5272.70 5767.37,5272.01 5770.99,5272.73"/>
    </edge>
    <edge id=":1353171756_8" function="internal">
        <lane id=":1353171756_8_0" index="0" disallow="tram rail_urban rail rail_electric rail_fast ship" speed="3.65" length="4.67" shape="5760.20,5278.36 5761.34,5277.47 5762.22,5277.35 5762.85,5277.98 5763.24,5279.37"/>
    </edge>
    <edge id=":1353171795_0" function="internal">
        <lane id=":1353171795_0_0" index="0" disallow="tram rail_urban rail rail_electric rail_fast ship" speed="13.89" length="0.33" shape="5589.98,5407.22 5589.85,5406.92"/>
    </edge>
    <edge id=":1353171795_1" function="internal">
        <lane id=":1353171795_1_0" index="0" disallow="tram rail_urban rail rail_electric rail_fast ship" speed="13.89" length="0.37" shape="5592.78,5405.63 5592.93,5405.97"/>
    </edge>
    <edge id=":146199754_0" function="internal">
        <lane id=":146199754_0_0" index="0" disallow="tram rail_urban rail rail_electric rail_fast ship" speed="3.71" length="4.66" shape="6088.37,5080.90 6089.34,5081.96 6089.54,5082.83 6088.96,5083.51 6087.61,5084.00"/>
    </edge>
    <edge id=":146205678_0" function="internal">
        <lane id=":146205678_0_0" index="0" disallow="tram rail_urban rail rail_electric rail_fast ship" speed="22.22" length="8.10" shape="5993.39,5063.10 5991.03,5062.71 5989.35,5062.80 5987.68,5062.86 5985.34,5062.36"/>
        <lane id=":146205678_0_1" index="1" disallow="tram rail_urban rail rail_electric rail_fast ship" speed="22.22" length="8.10" shape="5993.39,5063.10 5991.20,5062.24 5989.84,5061.28 5988.50,5060.28 5986.33,5059.32"/>
    </edge>
    <edge id=":146205790_0" function="internal">
        <lane id=":146205790_0_0" index="0" disallow="tram rail_urban rail rail_electric rail_fast ship" speed="22.22" length="8.21" shape="5971.19,5043.60 5973.53,5044.17 5975.22,5044.18 5976.92,5044.18 5979.27,5044.71"/>
    </edge>
    <edge id=":146212460_0" function="internal">
        <lane id=":146212460_0_0" index="0" disallow="tram rail_urban rail rail_electric rail_fast ship" speed="8.93" length="6.95" shape="5268.86,5341.37 5266.89,5341.40 5265.58,5341.89 5264.41,5342.84 5262.85,5344.20"/>
    </edge>
    <edge id=":146212460_1" function="internal">
        <lane id=":146212460_1_0" index="0" disallow="tram rail_urban rail rail_electric rail_fast ship" speed="22.22" length="7.09" shape="5268.86,5341.37 5266.77,5341.15 5265.36,5340.89 5263.96,5340.53 5261.92,5339.99"/>
    </edge>
    <edge id=":152555419_0" function="internal">
        <lane id=":152555419_0_0" index="0" disallow="tram rail_urban rail rail_electric rail_fast ship" speed="6.51" length="9.01" shape="5650.51,5235.01 5648.08,5234.58 5646.09,5235.02 5644.55,5236.35 5643.44,5238.55"/>
    </edge>
    <edge id=":152555419_1" function="internal">
        <lane id=":152555419_1_0" index="0" disallow="tram rail_urban rail rail_electric rail_fast ship" speed="13.89" length="14.35" shape="5650.51,5235.01 5636.92,5230.41"/>
    </edge>
    <edge id=":152555419_2" function="internal">
        <lane id=":152555419_2_0" index="0" disallow="tram rail_urban rail rail_electric rail_fast ship" speed="3.65" length="2.34" shape="5650.51,5235.01 5649.62,5233.88 5649.49,5232.99"/>
    </edge>
    <edge id=":152555419_9" function="internal">
        <lane id=":152555419_9_0" index="0" disallow="tram rail_urban rail rail_electric rail_fast ship" speed="3.65" length="2.34" shape="5649.49,5232.99 5650.13,5232.36 5651.52,5231.97"/>
    </edge>
    <edge id=":152555419_3" function="internal">
        <lane id=":152555419_3_0" index="0" disallow="tram rail_urban rail rail_electric rail_fast ship" speed="13.89" length="14.30" shape="5637.97,5227.38 5651.52,5231.97"/>
    </edge>
    <edge id=":152555419_4" function="internal">
        <lane id=":152555419_4_0" index="0" disallow="tram rail_urban rail rail_electric rail_fast ship" speed="8.02" length="5.84" shape="5637.97,5227.38 5641.41,5229.16 5642.67,5230.67"/>
    </edge>
    <edge id=":152555419_5" function="internal">
        <lane id=":152555419_5_0" index="0" disallow="tram rail_urban rail rail_electric rail_fast ship" speed="3.65" length="2.34" shape="5637.97,5227.38 5638.84,5228.53 5638.96,5229.42"/>
    </edge>
    <edge id=":152555419_10" function="internal">
        <lane id=":152555419_10_0" index="0" disallow="tram rail_urban rail rail_electric rail_fast ship" speed="8.02" length="8.31" shape="5642.67,5230.67 5643.46,5231.61 5644.14,5234.74 5643.44,5238.55"/>
    </edge>
    <edge id=":152555419_11" function="internal">
        <lane id=":152555419_11_0" index="0" disallow="tram rail_urban rail rail_electric rail_fast ship" speed="3.65" length="2.34" shape="5638.96,5229.42 5638.32,5230.04 5636.92,5230.41"/>
    </edge>
    <edge id=":152555419_6" function="internal">
        <lane id=":152555419_6_0" index="0" disallow="tram rail_urban rail rail_electric rail_fast ship" speed="6.53" length="9.03" shape="5640.41,5237.54 5640.85,5235.10 5640.42,5233.10 5639.11,5231.54 5636.92,5230.41"/>
    </edge>
    <edge id=":152555419_7" function="internal">
        <lane id=":152555419_7_0" index="0" disallow="tram rail_urban rail rail_electric rail_fast ship" speed="8.00" length="14.16" shape="5640.41,5237.54 5642.14,5234.07 5644.57,5231.99 5647.70,5231.29 5651.52,5231.97"/>
    </edge>
    <edge id=":152555419_8" function="internal">
        <lane id=":152555419_8_0" index="0" disallow="tram rail_urban rail rail_electric rail_fast ship" speed="3.65" length="4.67" shape="5640.41,5237.54 5641.55,5236.65 5642.43,5236.53 5643.06,5237.16 5643.44,5238.55"/>
    </edge>
    <edge id=":152608069_0" function="internal">
        <lane id=":152608069_0_0" index="0" disallow="tram rail_urban rail rail_electric rail_fast ship" speed="15.28" length="0.30" shape="4604.81,5312.17 4604.52,5312.07"/>
        <lane id=":152608069_0_1" index="1" disallow="tram rail_urban rail rail_electric rail_fast ship" speed="15.28" length="0.30" shape="4605.81,5309.13 4605.54,5309.04"/>
    </edge>
    <edge id=":1578945925_0" function="internal">
        <lane id=":1578945925_0_0" index="0" disallow="tram rail_urban rail rail_electric rail_fast ship" speed="16.67" length="20.44" shape="6150.95,4584.59 6147.06,4604.66"/>
        <lane id=":1578945925_0_1" index="1" disallow="tram rail_urban rail rail_electric rail_fast ship" speed="16.67" length="20.44" shape="6147.81,4583.98 6143.92,4604.05"/>
    </edge>
    <edge id=":1578945925_2" function="internal">
        <lane id=":1578945925_2_0" index="0" disallow="tram rail_urban rail rail_electric rail_fast ship" speed="22.23" length="20.44" shape="6147.81,4583.98 6146.08,4590.42 6143.97,4595.35 6141.81,4599.28 6139.92,4602.72"/>
    </edge>
    <edge id=":1578945932_0" function="internal">
        <lane id=":1578945932_0_0" index="0" disallow="tram rail_urban rail rail_electric rail_fast ship" speed="16.67" length="28.16" shape="6075.21,4851.03 6080.78,4823.42"/>
        <lane id=":1578945932_0_1" index="1" disallow="tram rail_urban rail rail_electric rail_fast ship" speed="16.67" length="28.16" shape="6078.34,4851.66 6083.92,4824.06"/>
    </edge>
    <edge id=":1578945932_2" function="internal">
        <lane id=":1578945932_2_0" index="0" disallow="tram rail_urban rail rail_electric rail_fast ship" speed="22.23" length="28.15" shape="6078.34,4851.66 6080.38,4844.04 6083.05,4836.47 6085.69,4829.86 6087.60,4825.11"/>
    </edge>
    <edge id=":1701993005_0" function="internal">
        <lane id=":1701993005_0_0" index="0" disallow="tram rail_urban rail rail_electric rail_fast ship" speed="8.63" length="3.80" shape="3796.23,5104.90 3799.91,5105.86"/>
        <lane id=":1701993005_0_1" index="1" disallow="tram rail_urban rail rail_electric rail_fast ship" speed="7.99" length="3.80" shape="3799.43,5104.82 3802.58,5104.10"/>
        <lane id=":1701993005_0_2" index="2" disallow="tram rail_urban rail rail_electric rail_fast ship" speed="8.36" length="3.80" shape="3802.63,5104.74 3805.25,5102.33"/>
        <lane id=":1701993005_0_3" index="3" disallow="tram rail_urban rail rail_electric rail_fast ship" speed="9.44" length="3.80" shape="3805.83,5104.67 3807.92,5100.57"/>
    </edge>
    <edge id=":1701993005_4" function="internal">
        <lane id=":1701993005_4_0" index="0" disallow="tram rail_urban rail rail_electric rail_fast ship" speed="3.65" length="2.46" shape="3805.83,5104.67 3806.60,5103.45 3807.39,5103.03 3807.50,5103.09"/>
    </edge>
    <edge id=":1701993005_9" function="internal">
        <lane id=":1701993005_9_0" index="0" disallow="tram rail_urban rail rail_electric rail_fast ship" speed="3.65" length="2.21" shape="3807.50,5103.09 3808.20,5103.41 3809.02,5104.59"/>
    </edge>
    <edge id=":1701993005_5" function="internal">
        <lane id=":1701993005_5_0" index="0" disallow="tram rail_urban rail rail_electric rail_fast ship" speed="7.09" length="3.54" shape="3813.35,5102.19 3812.22,5104.52"/>
        <lane id=":1701993005_5_1" index="1" disallow="tram rail_urban rail rail_electric rail_fast ship" speed="9.17" length="3.54" shape="3810.62,5100.52 3809.88,5101.63 3809.37,5102.44 3809.09,5103.30 3809.02,5104.59"/>
    </edge>
    <edge id=":1701993005_7" function="internal">
        <lane id=":1701993005_7_0" index="0" disallow="tram rail_urban rail rail_electric rail_fast ship" speed="5.20" length="3.33" shape="3810.62,5100.52 3809.10,5102.57 3808.47,5103.01"/>
    </edge>
    <edge id=":1701993005_8" function="internal">
        <lane id=":1701993005_8_0" index="0" disallow="tram rail_urban rail rail_electric rail_fast ship" speed="3.94" length="1.77" shape="3810.62,5100.52 3809.96,5101.33 3809.29,5101.60"/>
    </edge>
    <edge id=":1701993005_10" function="internal">
        <lane id=":1701993005_10_0" index="0" disallow="tram rail_urban rail rail_electric rail_fast ship" speed="5.20" length="3.86" shape="3808.47,5103.01 3807.70,5103.55 3806.42,5103.47 3805.25,5102.33"/>
    </edge>
    <edge id=":1701993005_11" function="internal">
        <lane id=":1701993005_11_0" index="0" disallow="tram rail_urban rail rail_electric rail_fast ship" speed="3.94" length="1.77" shape="3809.29,5101.60 3808.61,5101.35 3807.92,5100.57"/>
    </edge>
    <edge id=":1727933103_0" function="internal">
        <lane id=":1727933103_0_0" index="0" disallow="tram rail_urban rail rail_electric rail_fast ship" speed="3.65" length="4.67" shape="5385.15,3662.96 5384.38,3664.18 5383.59,3664.60 5382.78,3664.22 5381.95,3663.04"/>
    </edge>
    <edge id=":1966271784_0" function="internal">
        <lane id=":1966271784_0_0" index="0" disallow="tram rail_urban rail rail_electric rail_fast ship" speed="13.89" length="14.40" shape="5772.55,4396.65 5758.83,4392.26"/>
    </edge>
    <edge id=":1966271784_1" function="internal">
        <lane id=":1966271784_1_0" index="0" disallow="tram rail_urban rail rail_electric rail_fast ship" speed="8.14" length="5.85" shape="5772.55,4396.65 5769.12,4394.97 5767.78,4393.44"/>
    </edge>
    <edge id=":1966271784_2" function="internal">
        <lane id=":1966271784_2_0" index="0" disallow="tram rail_urban rail rail_electric rail_fast ship" speed="3.65" length="2.34" shape="5772.55,4396.65 5771.66,4395.52 5771.52,4394.64"/>
    </edge>
    <edge id=":1966271784_9" function="internal">
        <lane id=":1966271784_9_0" index="0" disallow="tram rail_urban rail rail_electric rail_fast ship" speed="8.14" length="8.40" shape="5767.78,4393.44 5767.00,4392.54 5766.19,4389.38 5766.70,4385.47"/>
    </edge>
    <edge id=":1966271784_10" function="internal">
        <lane id=":1966271784_10_0" index="0" disallow="tram rail_urban rail rail_electric rail_fast ship" speed="3.65" length="2.34" shape="5771.52,4394.64 5772.14,4393.99 5773.53,4393.60"/>
    </edge>
    <edge id=":1966271784_3" function="internal">
        <lane id=":1966271784_3_0" index="0" disallow="tram rail_urban rail rail_electric rail_fast ship" speed="6.67" length="9.25" shape="5769.79,4386.32 5769.45,4388.87 5769.96,4390.94 5771.32,4392.51 5773.53,4393.60"/>
    </edge>
    <edge id=":1966271784_4" function="internal">
        <lane id=":1966271784_4_0" index="0" disallow="tram rail_urban rail rail_electric rail_fast ship" speed="7.93" length="14.35" shape="5769.79,4386.32 5768.21,4389.94 5765.86,4392.15 5762.74,4392.92 5758.83,4392.26"/>
    </edge>
    <edge id=":1966271784_5" function="internal">
        <lane id=":1966271784_5_0" index="0" disallow="tram rail_urban rail rail_electric rail_fast ship" speed="3.65" length="4.67" shape="5769.79,4386.32 5768.70,4387.26 5767.83,4387.44 5767.16,4386.84 5766.70,4385.47"/>
    </edge>